[setup]

coupled_domains: LEFT:RIGHT

[job_defaults]

n_procs: 
n_threads: 

[LEFT]

domain: LEFT
n_procs_weight: 2
script: ../LEFT/LUMA
solver: LUMA

[RIGHT]

domain: RIGHT
n_procs_weight: 2
solver: Code_Saturne


